42

  C       -0.28683       -4.68434       -2.36891
  C       -0.12715       -5.14473       -3.69473
  C        0.16538       -4.23772       -4.74188
  C        0.30198       -2.85780       -4.47593
  C        0.13962       -2.42028       -3.15200
  C       -0.14755       -3.30805       -2.12196
  O        0.21524       -1.18215       -2.63043
  C       -0.02429       -1.32468       -1.29927
  N       -0.24680       -2.61761       -0.97880
  C       -0.03986       -0.28496       -0.38473
  C        0.18464        1.00275       -0.72131
  C        0.19828        2.15575        0.10662
  C        0.20051        4.41789        1.87886
  C       -0.04954        3.12759        2.36743
  C       -0.04972        2.02898        1.50127
  C        0.45617        3.48239       -0.40053
  C        0.45505        4.60582        0.49303
  C        0.70631        5.93174        0.02532
  C        0.70087        7.03420        0.92835
  C        0.44496        6.81242        2.29569
  C        0.19703        5.51576        2.76643
  C        0.72131        3.77063       -1.77104
  C        0.96888        5.07117       -2.23659
  C        0.96501        6.16269       -1.35163
  C        1.21315        7.47562       -1.81083
  C        1.20583        8.55663       -0.91340
  C        0.95104        8.33855        0.45012
  H       -0.49804       -5.33304       -1.60797
  H       -0.22353       -6.14118       -3.90041
  H        0.27848       -4.58397       -5.69690
  H        0.51301       -2.19453       -5.22430
  H       -0.22822       -0.53528        0.55297
  H        0.36196        1.13967       -1.68198
  H       -0.23472        2.97560        3.36356
  H       -0.24030        1.12836        1.93903
  H        0.43684        7.59208        2.96002
  H        0.01376        5.38180        3.76531
  H        0.74524        3.04693       -2.48654
  H        1.15285        5.21177       -3.23440
  H        1.40068        7.65388       -2.80036
  H        1.38597        9.50525       -1.25032
  H        0.94930        9.13734        1.09118
